<?xml version="1.0" encoding="UTF-8"?>

<!-- generated on 2026-03-08T14:03:05.707760+05:30 by Eclipse SUMO netedit 1.26.0
<neteditConfiguration xmlns:xsi="http://www.w3.org/2001/XMLSchema-instance" xsi:noNamespaceSchemaLocation="http://sumo.dlr.de/xsd/neteditConfiguration.xsd">

    <input>
        <sumo-net-file value="C:\Users\mahen\Desktop\TrafficHackathon\crossroads.net.xml"/>
    </input>

    <output>
        <output-file value="C:\Users\mahen\Desktop\TrafficHackathon\crossroads.net.xml"/>
    </output>

    <processing>
        <offset.disable-normalization value="true"/>
    </processing>

    <junctions>
        <no-turnarounds value="true"/>
    </junctions>

    <netedit>
        <new-network value="false"/>
    </netedit>

</neteditConfiguration>
-->

<net version="1.20" junctionCornerDetail="5" limitTurnSpeed="5.50" xmlns:xsi="http://www.w3.org/2001/XMLSchema-instance" xsi:noNamespaceSchemaLocation="http://sumo.dlr.de/xsd/net_file.xsd">

    <location netOffset="0.00,0.00" convBoundary="-61.00,-66.07,32.66,18.31" origBoundary="10000000000.00,10000000000.00,-10000000000.00,-10000000000.00" projParameter="!"/>

    <edge id=":J25_0" function="internal">
        <lane id=":J25_0_0" index="0" disallow="pedestrian" speed="6.63" length="9.19" shape="-12.47,-18.67 -12.83,-21.15 -13.90,-22.93 -15.68,-24.04 -18.16,-24.46"/>
    </edge>
    <edge id=":J25_1" function="internal">
        <lane id=":J25_1_0" index="0" disallow="pedestrian" speed="13.89" length="14.50" shape="-12.47,-18.67 -12.36,-33.18"/>
    </edge>
    <edge id=":J25_2" function="internal">
        <lane id=":J25_2_0" index="0" disallow="pedestrian" speed="8.04" length="4.13" shape="-12.47,-18.67 -11.93,-22.52 -11.80,-22.73"/>
    </edge>
    <edge id=":J25_12" function="internal">
        <lane id=":J25_12_0" index="0" disallow="pedestrian" speed="8.04" length="10.13" shape="-11.80,-22.73 -10.27,-25.27 -7.50,-26.94 -3.62,-27.52"/>
    </edge>
    <edge id=":J25_3" function="internal">
        <lane id=":J25_3_0" index="0" disallow="pedestrian" speed="6.55" length="9.12" shape="-3.59,-24.32 -6.08,-23.95 -7.86,-22.89 -8.92,-21.13 -9.27,-18.68"/>
    </edge>
    <edge id=":J25_4" function="internal">
        <lane id=":J25_4_0" index="0" disallow="pedestrian" speed="13.89" length="14.57" shape="-3.59,-24.32 -18.16,-24.46"/>
    </edge>
    <edge id=":J25_5" function="internal">
        <lane id=":J25_5_0" index="0" disallow="pedestrian" speed="7.95" length="4.22" shape="-3.59,-24.32 -7.49,-24.85 -7.74,-25.00"/>
    </edge>
    <edge id=":J25_13" function="internal">
        <lane id=":J25_13_0" index="0" disallow="pedestrian" speed="7.95" length="10.07" shape="-7.74,-25.00 -10.25,-26.50 -11.87,-29.27 -12.36,-33.18"/>
    </edge>
    <edge id=":J25_6" function="internal">
        <lane id=":J25_6_0" index="0" disallow="pedestrian" speed="6.45" length="9.03" shape="-9.16,-33.12 -8.85,-30.65 -7.82,-28.90 -6.08,-27.85 -3.62,-27.52"/>
    </edge>
    <edge id=":J25_7" function="internal">
        <lane id=":J25_7_0" index="0" disallow="pedestrian" speed="13.89" length="14.43" shape="-9.16,-33.12 -9.27,-18.68"/>
    </edge>
    <edge id=":J25_8" function="internal">
        <lane id=":J25_8_0" index="0" disallow="pedestrian" speed="8.00" length="3.93" shape="-9.16,-33.12 -9.78,-29.24"/>
    </edge>
    <edge id=":J25_14" function="internal">
        <lane id=":J25_14_0" index="0" disallow="pedestrian" speed="8.00" length="10.34" shape="-9.78,-29.24 -11.49,-26.50 -14.28,-24.91 -18.16,-24.46"/>
    </edge>
    <edge id=":J25_9" function="internal">
        <lane id=":J25_9_0" index="0" disallow="pedestrian" speed="6.50" length="9.08" shape="-18.07,-27.66 -15.61,-27.94 -13.84,-28.96 -12.75,-30.70 -12.36,-33.18"/>
    </edge>
    <edge id=":J25_10" function="internal">
        <lane id=":J25_10_0" index="0" disallow="pedestrian" speed="13.89" length="14.46" shape="-18.07,-27.66 -3.62,-27.52"/>
    </edge>
    <edge id=":J25_11" function="internal">
        <lane id=":J25_11_0" index="0" disallow="pedestrian" speed="8.10" length="3.90" shape="-18.07,-27.66 -14.23,-27.01"/>
    </edge>
    <edge id=":J25_15" function="internal">
        <lane id=":J25_15_0" index="0" disallow="pedestrian" speed="8.10" length="10.34" shape="-14.23,-27.01 -11.48,-25.29 -9.83,-22.52 -9.27,-18.68"/>
    </edge>

    <edge id="-E16" from="J25" to="J24" priority="-1">
        <lane id="-E16_0" index="0" disallow="pedestrian" speed="13.89" length="42.90" shape="-18.16,-24.46 -61.04,-25.62"/>
    </edge>
    <edge id="-E17" from="J25" to="J26" priority="-1">
        <lane id="-E17_0" index="0" disallow="pedestrian" speed="13.89" length="36.99" shape="-9.27,-18.68 -9.17,18.31"/>
    </edge>
    <edge id="-E18" from="J25" to="J27" priority="-1">
        <lane id="-E18_0" index="0" disallow="pedestrian" speed="13.89" length="36.26" shape="-3.62,-27.52 32.65,-27.83"/>
    </edge>
    <edge id="-E19" from="J25" to="J28" priority="-1">
        <lane id="-E19_0" index="0" disallow="pedestrian" speed="13.89" length="32.93" shape="-12.36,-33.18 -11.75,-66.10"/>
    </edge>
    <edge id="E16" from="J24" to="J25" priority="-1">
        <lane id="E16_0" index="0" disallow="pedestrian" speed="13.89" length="42.90" shape="-60.96,-28.82 -18.07,-27.66"/>
    </edge>
    <edge id="E17" from="J26" to="J25" priority="-1">
        <lane id="E17_0" index="0" disallow="pedestrian" speed="13.89" length="36.99" shape="-12.37,18.31 -12.47,-18.67"/>
    </edge>
    <edge id="E18" from="J27" to="J25" priority="-1">
        <lane id="E18_0" index="0" disallow="pedestrian" speed="13.89" length="36.26" shape="32.67,-24.63 -3.59,-24.32"/>
    </edge>
    <edge id="E19" from="J28" to="J25" priority="-1">
        <lane id="E19_0" index="0" disallow="pedestrian" speed="13.89" length="32.93" shape="-8.55,-66.04 -9.16,-33.12"/>
    </edge>

    <tlLogic id="J25" type="static" programID="0" offset="0">
        <phase duration="42" state="GGgrrrGGgrrr"/>
        <phase duration="3"  state="yyyrrryyyrrr"/>
        <phase duration="42" state="rrrGGgrrrGGg"/>
        <phase duration="3"  state="rrryyyrrryyy"/>
    </tlLogic>

    <junction id="J24" type="dead_end" x="-61.00" y="-27.22" incLanes="-E16_0" intLanes="" shape="-61.00,-27.22 -61.09,-24.02 -61.00,-27.22"/>
    <junction id="J25" type="traffic_light" x="-10.89" y="-25.86" incLanes="E17_0 E18_0 E19_0 E16_0" intLanes=":J25_0_0 :J25_1_0 :J25_12_0 :J25_3_0 :J25_4_0 :J25_13_0 :J25_6_0 :J25_7_0 :J25_14_0 :J25_9_0 :J25_10_0 :J25_15_0" shape="-14.07,-18.67 -7.67,-18.69 -7.22,-20.91 -6.65,-21.70 -5.86,-22.26 -4.83,-22.60 -3.58,-22.72 -3.63,-29.12 -5.84,-29.55 -6.61,-30.10 -7.15,-30.87 -7.47,-31.87 -7.56,-33.09 -13.96,-33.20 -14.44,-30.96 -15.01,-30.19 -15.80,-29.65 -16.80,-29.33 -18.03,-29.25 -18.20,-22.86 -15.91,-22.34 -15.11,-21.75 -14.53,-20.95 -14.19,-19.92">
        <request index="0"  response="000000000000" foes="000100010000" cont="0"/>
        <request index="1"  response="100000100000" foes="111100110000" cont="0"/>
        <request index="2"  response="100111100000" foes="110111110000" cont="1"/>
        <request index="3"  response="000010000000" foes="100010000000" cont="0"/>
        <request index="4"  response="000110000111" foes="100110000111" cont="0"/>
        <request index="5"  response="011110000110" foes="111110000110" cont="1"/>
        <request index="6"  response="000000000000" foes="010000000100" cont="0"/>
        <request index="7"  response="100000100000" foes="110000111100" cont="0"/>
        <request index="8"  response="100000100011" foes="110000110111" cont="1"/>
        <request index="9"  response="000000000010" foes="000000100010" cont="0"/>
        <request index="10" response="000111000110" foes="000111100110" cont="0"/>
        <request index="11" response="000110111110" foes="000110111110" cont="1"/>
    </junction>
    <junction id="J26" type="dead_end" x="-10.77" y="18.31" incLanes="-E17_0" intLanes="" shape="-10.77,18.31 -7.57,18.30 -10.77,18.31"/>
    <junction id="J27" type="dead_end" x="32.66" y="-26.23" incLanes="-E18_0" intLanes="" shape="32.66,-26.23 32.63,-29.43 32.66,-26.23"/>
    <junction id="J28" type="dead_end" x="-10.15" y="-66.07" incLanes="-E19_0" intLanes="" shape="-10.15,-66.07 -13.35,-66.13 -10.15,-66.07"/>

    <junction id=":J25_12_0" type="internal" x="-11.80" y="-22.73" incLanes=":J25_2_0 E19_0" intLanes=":J25_4_0 :J25_5_0 :J25_6_0 :J25_7_0 :J25_10_0 :J25_11_0"/>
    <junction id=":J25_13_0" type="internal" x="-7.74" y="-25.00" incLanes=":J25_5_0 E16_0" intLanes=":J25_1_0 :J25_2_0 :J25_7_0 :J25_8_0 :J25_9_0 :J25_10_0"/>
    <junction id=":J25_14_0" type="internal" x="-9.78" y="-29.24" incLanes=":J25_8_0 E17_0" intLanes=":J25_0_0 :J25_1_0 :J25_4_0 :J25_5_0 :J25_10_0 :J25_11_0"/>
    <junction id=":J25_15_0" type="internal" x="-14.23" y="-27.01" incLanes=":J25_11_0 E18_0" intLanes=":J25_1_0 :J25_2_0 :J25_3_0 :J25_4_0 :J25_7_0 :J25_8_0"/>

    <connection from="E16" to="-E19" fromLane="0" toLane="0" via=":J25_9_0" tl="J25" linkIndex="9" dir="r" state="o"/>
    <connection from="E16" to="-E18" fromLane="0" toLane="0" via=":J25_10_0" tl="J25" linkIndex="10" dir="s" state="o"/>
    <connection from="E16" to="-E17" fromLane="0" toLane="0" via=":J25_11_0" tl="J25" linkIndex="11" dir="l" state="o"/>
    <connection from="E17" to="-E16" fromLane="0" toLane="0" via=":J25_0_0" tl="J25" linkIndex="0" dir="r" state="O"/>
    <connection from="E17" to="-E19" fromLane="0" toLane="0" via=":J25_1_0" tl="J25" linkIndex="1" dir="s" state="O"/>
    <connection from="E17" to="-E18" fromLane="0" toLane="0" via=":J25_2_0" tl="J25" linkIndex="2" dir="l" state="o"/>
    <connection from="E18" to="-E17" fromLane="0" toLane="0" via=":J25_3_0" tl="J25" linkIndex="3" dir="r" state="o"/>
    <connection from="E18" to="-E16" fromLane="0" toLane="0" via=":J25_4_0" tl="J25" linkIndex="4" dir="s" state="o"/>
    <connection from="E18" to="-E19" fromLane="0" toLane="0" via=":J25_5_0" tl="J25" linkIndex="5" dir="l" state="o"/>
    <connection from="E19" to="-E18" fromLane="0" toLane="0" via=":J25_6_0" tl="J25" linkIndex="6" dir="r" state="O"/>
    <connection from="E19" to="-E17" fromLane="0" toLane="0" via=":J25_7_0" tl="J25" linkIndex="7" dir="s" state="O"/>
    <connection from="E19" to="-E16" fromLane="0" toLane="0" via=":J25_8_0" tl="J25" linkIndex="8" dir="l" state="o"/>

    <connection from=":J25_0" to="-E16" fromLane="0" toLane="0" dir="r" state="M"/>
    <connection from=":J25_1" to="-E19" fromLane="0" toLane="0" dir="s" state="M"/>
    <connection from=":J25_2" to="-E18" fromLane="0" toLane="0" via=":J25_12_0" dir="l" state="m"/>
    <connection from=":J25_12" to="-E18" fromLane="0" toLane="0" dir="l" state="M"/>
    <connection from=":J25_3" to="-E17" fromLane="0" toLane="0" dir="r" state="M"/>
    <connection from=":J25_4" to="-E16" fromLane="0" toLane="0" dir="s" state="M"/>
    <connection from=":J25_5" to="-E19" fromLane="0" toLane="0" via=":J25_13_0" dir="l" state="m"/>
    <connection from=":J25_13" to="-E19" fromLane="0" toLane="0" dir="l" state="M"/>
    <connection from=":J25_6" to="-E18" fromLane="0" toLane="0" dir="r" state="M"/>
    <connection from=":J25_7" to="-E17" fromLane="0" toLane="0" dir="s" state="M"/>
    <connection from=":J25_8" to="-E16" fromLane="0" toLane="0" via=":J25_14_0" dir="l" state="m"/>
    <connection from=":J25_14" to="-E16" fromLane="0" toLane="0" dir="l" state="M"/>
    <connection from=":J25_9" to="-E19" fromLane="0" toLane="0" dir="r" state="M"/>
    <connection from=":J25_10" to="-E18" fromLane="0" toLane="0" dir="s" state="M"/>
    <connection from=":J25_11" to="-E17" fromLane="0" toLane="0" via=":J25_15_0" dir="l" state="m"/>
    <connection from=":J25_15" to="-E17" fromLane="0" toLane="0" dir="l" state="M"/>

</net>
